<?xml version='1.0' encoding='UTF-8'?>
<!-- generated on 2024-10-31 13:50:22 by Eclipse SUMO netedit Version 1.20.0
<configuration xmlns:xsi="http://www.w3.org/2001/XMLSchema-instance" xsi:noNamespaceSchemaLocation="http://sumo.dlr.de/xsd/neteditConfiguration.xsd">

    <input>
        <sumo-net-file value="d:\temp\tandem2simple.net.xml"/>
    </input>

    <output>
        <output-file value="d:\temp\tandem2simple.net.xml"/>
    </output>

    <processing>
        <geometry.min-radius.fix.railways value="false"/>
        <geometry.max-grade.fix value="false"/>
        <offset.disable-normalization value="true"/>
        <lefthand value="0"/>
    </processing>

    <junctions>
        <no-turnarounds value="true"/>
        <junctions.corner-detail value="5"/>
        <junctions.limit-turn-speed value="5.50"/>
        <rectangular-lane-cut value="0"/>
    </junctions>

    <pedestrian>
        <walkingareas value="0"/>
    </pedestrian>

</configuration>
-->
<net version='1.20'
    junctionCornerDetail='5'
    limitTurnSpeed='5.50'
    xmlns:xsi='http://www.w3.org/2001/XMLSchema-instance'
    xsi:noNamespaceSchemaLocation='http://sumo.dlr.de/xsd/net_file.xsd'>
 <location netOffset='0.00,0.00'
     convBoundary='0.00,0.00,900.00,600.00'
     origBoundary='0.00,0.00,900.00,900.00'
     projParameter='!' />
 <edge id=':A1_0'
     function='internal'>
  <lane id=':A1_0_0'
      index='0'
      speed='3.65'
      length='4.67'
      shape='0.00,301.60 -1.20,300.80 -1.60,300.00 -1.20,299.20 0.00,298.40' />
 </edge>
 <edge id=':B0_0'
     function='internal'>
  <lane id=':B0_0_0'
      index='0'
      speed='3.65'
      length='4.67'
      shape='298.40,0.00 299.20,-1.20 300.00,-1.60 300.80,-1.20 301.60,0.00' />
 </edge>
 <edge id=':B1_0'
     function='internal'>
  <lane id=':B1_0_0'
      index='0'
      speed='6.51'
      length='9.03'
      shape='298.40,307.20 298.05,304.75 297.00,303.00 295.25,301.95 292.80,301.60' />
 </edge>
 <edge id=':B1_1'
     function='internal'>
  <lane id=':B1_1_0'
      index='0'
      speed='13.89'
      length='14.40'
      shape='298.40,307.20 298.40,292.80' />
 </edge>
 <edge id=':B1_2'
     function='internal'>
  <lane id=':B1_2_0'
      index='0'
      speed='8.00'
      length='4.07'
      shape='298.40,307.20 298.95,303.35 299.04,303.20' />
 </edge>
 <edge id=':B1_3'
     function='internal'>
  <lane id=':B1_3_0'
      index='0'
      speed='3.65'
      length='1.44'
      shape='298.40,307.20 299.20,306.00' />
 </edge>
 <edge id=':B1_16'
     function='internal'>
  <lane id=':B1_16_0'
      index='0'
      speed='8.00'
      length='10.13'
      shape='299.04,303.20 300.60,300.60 303.35,298.95 307.20,298.40' />
 </edge>
 <edge id=':B1_17'
     function='internal'>
  <lane id=':B1_17_0'
      index='0'
      speed='3.65'
      length='3.23'
      shape='299.20,306.00 300.00,305.60 300.80,306.00 301.60,307.20' />
 </edge>
 <edge id=':B1_4'
     function='internal'>
  <lane id=':B1_4_0'
      index='0'
      speed='6.51'
      length='9.03'
      shape='307.20,301.60 304.75,301.95 303.00,303.00 301.95,304.75 301.60,307.20' />
 </edge>
 <edge id=':B1_5'
     function='internal'>
  <lane id=':B1_5_0'
      index='0'
      speed='13.89'
      length='14.40'
      shape='307.20,301.60 292.80,301.60' />
 </edge>
 <edge id=':B1_6'
     function='internal'>
  <lane id=':B1_6_0'
      index='0'
      speed='8.00'
      length='14.19'
      shape='307.20,301.60 303.35,301.05 300.60,299.40 298.95,296.65 298.40,292.80' />
 </edge>
 <edge id=':B1_7'
     function='internal'>
  <lane id=':B1_7_0'
      index='0'
      speed='3.65'
      length='4.67'
      shape='307.20,301.60 306.00,300.80 305.60,300.00 306.00,299.20 307.20,298.40' />
 </edge>
 <edge id=':B1_8'
     function='internal'>
  <lane id=':B1_8_0'
      index='0'
      speed='6.51'
      length='9.03'
      shape='301.60,292.80 301.95,295.25 303.00,297.00 304.75,298.05 307.20,298.40' />
 </edge>
 <edge id=':B1_9'
     function='internal'>
  <lane id=':B1_9_0'
      index='0'
      speed='13.89'
      length='14.40'
      shape='301.60,292.80 301.60,307.20' />
 </edge>
 <edge id=':B1_10'
     function='internal'>
  <lane id=':B1_10_0'
      index='0'
      speed='8.00'
      length='4.07'
      shape='301.60,292.80 301.05,296.65 300.96,296.80' />
 </edge>
 <edge id=':B1_11'
     function='internal'>
  <lane id=':B1_11_0'
      index='0'
      speed='3.65'
      length='1.44'
      shape='301.60,292.80 300.80,294.00' />
 </edge>
 <edge id=':B1_18'
     function='internal'>
  <lane id=':B1_18_0'
      index='0'
      speed='8.00'
      length='10.13'
      shape='300.96,296.80 299.40,299.40 296.65,301.05 292.80,301.60' />
 </edge>
 <edge id=':B1_19'
     function='internal'>
  <lane id=':B1_19_0'
      index='0'
      speed='3.65'
      length='3.23'
      shape='300.80,294.00 300.00,294.40 299.20,294.00 298.40,292.80' />
 </edge>
 <edge id=':B1_12'
     function='internal'>
  <lane id=':B1_12_0'
      index='0'
      speed='6.51'
      length='9.03'
      shape='292.80,298.40 295.25,298.05 297.00,297.00 298.05,295.25 298.40,292.80' />
 </edge>
 <edge id=':B1_13'
     function='internal'>
  <lane id=':B1_13_0'
      index='0'
      speed='13.89'
      length='14.40'
      shape='292.80,298.40 307.20,298.40' />
 </edge>
 <edge id=':B1_14'
     function='internal'>
  <lane id=':B1_14_0'
      index='0'
      speed='8.00'
      length='14.19'
      shape='292.80,298.40 296.65,298.95 299.40,300.60 301.05,303.35 301.60,307.20' />
 </edge>
 <edge id=':B1_15'
     function='internal'>
  <lane id=':B1_15_0'
      index='0'
      speed='3.65'
      length='4.67'
      shape='292.80,298.40 294.00,299.20 294.40,300.00 294.00,300.80 292.80,301.60' />
 </edge>
 <edge id=':B2_0'
     function='internal'>
  <lane id=':B2_0_0'
      index='0'
      speed='3.65'
      length='4.67'
      shape='301.60,600.00 300.80,601.20 300.00,601.60 299.20,601.20 298.40,600.00' />
 </edge>
 <edge id=':C0_0'
     function='internal'>
  <lane id=':C0_0_0'
      index='0'
      speed='3.65'
      length='4.67'
      shape='598.40,0.00 599.20,-1.20 600.00,-1.60 600.80,-1.20 601.60,0.00' />
 </edge>
 <edge id=':C1_0'
     function='internal'>
  <lane id=':C1_0_0'
      index='0'
      speed='6.51'
      length='9.03'
      shape='598.40,307.20 598.05,304.75 597.00,303.00 595.25,301.95 592.80,301.60' />
 </edge>
 <edge id=':C1_1'
     function='internal'>
  <lane id=':C1_1_0'
      index='0'
      speed='13.89'
      length='14.40'
      shape='598.40,307.20 598.40,292.80' />
 </edge>
 <edge id=':C1_2'
     function='internal'>
  <lane id=':C1_2_0'
      index='0'
      speed='8.00'
      length='4.07'
      shape='598.40,307.20 598.95,303.35 599.04,303.20' />
 </edge>
 <edge id=':C1_3'
     function='internal'>
  <lane id=':C1_3_0'
      index='0'
      speed='3.65'
      length='1.44'
      shape='598.40,307.20 599.20,306.00' />
 </edge>
 <edge id=':C1_16'
     function='internal'>
  <lane id=':C1_16_0'
      index='0'
      speed='8.00'
      length='10.13'
      shape='599.04,303.20 600.60,300.60 603.35,298.95 607.20,298.40' />
 </edge>
 <edge id=':C1_17'
     function='internal'>
  <lane id=':C1_17_0'
      index='0'
      speed='3.65'
      length='3.23'
      shape='599.20,306.00 600.00,305.60 600.80,306.00 601.60,307.20' />
 </edge>
 <edge id=':C1_4'
     function='internal'>
  <lane id=':C1_4_0'
      index='0'
      speed='6.51'
      length='9.03'
      shape='607.20,301.60 604.75,301.95 603.00,303.00 601.95,304.75 601.60,307.20' />
 </edge>
 <edge id=':C1_5'
     function='internal'>
  <lane id=':C1_5_0'
      index='0'
      speed='13.89'
      length='14.40'
      shape='607.20,301.60 592.80,301.60' />
 </edge>
 <edge id=':C1_6'
     function='internal'>
  <lane id=':C1_6_0'
      index='0'
      speed='8.00'
      length='14.19'
      shape='607.20,301.60 603.35,301.05 600.60,299.40 598.95,296.65 598.40,292.80' />
 </edge>
 <edge id=':C1_7'
     function='internal'>
  <lane id=':C1_7_0'
      index='0'
      speed='3.65'
      length='4.67'
      shape='607.20,301.60 606.00,300.80 605.60,300.00 606.00,299.20 607.20,298.40' />
 </edge>
 <edge id=':C1_8'
     function='internal'>
  <lane id=':C1_8_0'
      index='0'
      speed='6.51'
      length='9.03'
      shape='601.60,292.80 601.95,295.25 603.00,297.00 604.75,298.05 607.20,298.40' />
 </edge>
 <edge id=':C1_9'
     function='internal'>
  <lane id=':C1_9_0'
      index='0'
      speed='13.89'
      length='14.40'
      shape='601.60,292.80 601.60,307.20' />
 </edge>
 <edge id=':C1_10'
     function='internal'>
  <lane id=':C1_10_0'
      index='0'
      speed='8.00'
      length='4.07'
      shape='601.60,292.80 601.05,296.65 600.96,296.80' />
 </edge>
 <edge id=':C1_11'
     function='internal'>
  <lane id=':C1_11_0'
      index='0'
      speed='3.65'
      length='1.44'
      shape='601.60,292.80 600.80,294.00' />
 </edge>
 <edge id=':C1_18'
     function='internal'>
  <lane id=':C1_18_0'
      index='0'
      speed='8.00'
      length='10.13'
      shape='600.96,296.80 599.40,299.40 596.65,301.05 592.80,301.60' />
 </edge>
 <edge id=':C1_19'
     function='internal'>
  <lane id=':C1_19_0'
      index='0'
      speed='3.65'
      length='3.23'
      shape='600.80,294.00 600.00,294.40 599.20,294.00 598.40,292.80' />
 </edge>
 <edge id=':C1_12'
     function='internal'>
  <lane id=':C1_12_0'
      index='0'
      speed='6.51'
      length='9.03'
      shape='592.80,298.40 595.25,298.05 597.00,297.00 598.05,295.25 598.40,292.80' />
 </edge>
 <edge id=':C1_13'
     function='internal'>
  <lane id=':C1_13_0'
      index='0'
      speed='13.89'
      length='14.40'
      shape='592.80,298.40 607.20,298.40' />
 </edge>
 <edge id=':C1_14'
     function='internal'>
  <lane id=':C1_14_0'
      index='0'
      speed='8.00'
      length='14.19'
      shape='592.80,298.40 596.65,298.95 599.40,300.60 601.05,303.35 601.60,307.20' />
 </edge>
 <edge id=':C1_15'
     function='internal'>
  <lane id=':C1_15_0'
      index='0'
      speed='3.65'
      length='4.67'
      shape='592.80,298.40 594.00,299.20 594.40,300.00 594.00,300.80 592.80,301.60' />
 </edge>
 <edge id=':C2_0'
     function='internal'>
  <lane id=':C2_0_0'
      index='0'
      speed='3.65'
      length='4.67'
      shape='601.60,600.00 600.80,601.20 600.00,601.60 599.20,601.20 598.40,600.00' />
 </edge>
 <edge id=':D1_0'
     function='internal'>
  <lane id=':D1_0_0'
      index='0'
      speed='3.65'
      length='4.67'
      shape='900.00,298.40 901.20,299.20 901.60,300.00 901.20,300.80 900.00,301.60' />
 </edge>
 <edge id='A1B1'
     from='A1'
     to='B1'
     priority='-1'>
  <lane id='A1B1_0'
      index='0'
      speed='13.89'
      length='292.80'
      shape='0.00,298.40 292.80,298.40' />
 </edge>
 <edge id='B0B1'
     from='B0'
     to='B1'
     priority='-1'>
  <lane id='B0B1_0'
      index='0'
      speed='13.89'
      length='292.80'
      shape='301.60,0.00 301.60,292.80' />
 </edge>
 <edge id='B1A1'
     from='B1'
     to='A1'
     priority='-1'>
  <lane id='B1A1_0'
      index='0'
      speed='13.89'
      length='292.80'
      shape='292.80,301.60 0.00,301.60' />
 </edge>
 <edge id='B1B0'
     from='B1'
     to='B0'
     priority='-1'>
  <lane id='B1B0_0'
      index='0'
      speed='13.89'
      length='292.80'
      shape='298.40,292.80 298.40,0.00' />
 </edge>
 <edge id='B1B2'
     from='B1'
     to='B2'
     priority='-1'>
  <lane id='B1B2_0'
      index='0'
      speed='13.89'
      length='292.80'
      shape='301.60,307.20 301.60,600.00' />
 </edge>
 <edge id='B1C1'
     from='B1'
     to='C1'
     priority='-1'>
  <lane id='B1C1_0'
      index='0'
      speed='13.89'
      length='285.60'
      shape='307.20,298.40 592.80,298.40' />
 </edge>
 <edge id='B2B1'
     from='B2'
     to='B1'
     priority='-1'>
  <lane id='B2B1_0'
      index='0'
      speed='13.89'
      length='292.80'
      shape='298.40,600.00 298.40,307.20' />
 </edge>
 <edge id='C0C1'
     from='C0'
     to='C1'
     priority='-1'>
  <lane id='C0C1_0'
      index='0'
      speed='13.89'
      length='292.80'
      shape='601.60,0.00 601.60,292.80' />
 </edge>
 <edge id='C1B1'
     from='C1'
     to='B1'
     priority='-1'>
  <lane id='C1B1_0'
      index='0'
      speed='13.89'
      length='285.60'
      shape='592.80,301.60 307.20,301.60' />
 </edge>
 <edge id='C1C0'
     from='C1'
     to='C0'
     priority='-1'>
  <lane id='C1C0_0'
      index='0'
      speed='13.89'
      length='292.80'
      shape='598.40,292.80 598.40,0.00' />
 </edge>
 <edge id='C1C2'
     from='C1'
     to='C2'
     priority='-1'>
  <lane id='C1C2_0'
      index='0'
      speed='13.89'
      length='292.80'
      shape='601.60,307.20 601.60,600.00' />
 </edge>
 <edge id='C1D1'
     from='C1'
     to='D1'
     priority='-1'>
  <lane id='C1D1_0'
      index='0'
      speed='13.89'
      length='292.80'
      shape='607.20,298.40 900.00,298.40' />
 </edge>
 <edge id='C2C1'
     from='C2'
     to='C1'
     priority='-1'>
  <lane id='C2C1_0'
      index='0'
      speed='13.89'
      length='292.80'
      shape='598.40,600.00 598.40,307.20' />
 </edge>
 <edge id='D1C1'
     from='D1'
     to='C1'
     priority='-1'>
  <lane id='D1C1_0'
      index='0'
      speed='13.89'
      length='292.80'
      shape='900.00,301.60 607.20,301.60' />
 </edge>
 <junction id='A1'
     type='priority'
     x='0.00'
     y='300.00'
     incLanes='B1A1_0'
     intLanes=':A1_0_0'
     shape='0.00,300.00 0.00,303.20 0.00,300.00'>
  <request index='0'
      response='0'
      foes='0'
      cont='0' />
 </junction>
 <junction id='B0'
     type='priority'
     x='300.00'
     y='0.00'
     incLanes='B1B0_0'
     intLanes=':B0_0_0'
     shape='300.00,0.00 296.80,0.00 300.00,0.00'>
  <request index='0'
      response='0'
      foes='0'
      cont='0' />
 </junction>
 <junction id='B1'
     type='priority'
     x='300.00'
     y='300.00'
     incLanes='B2B1_0 C1B1_0 B0B1_0 A1B1_0'
     intLanes=':B1_0_0 :B1_1_0 :B1_16_0 :B1_17_0 :B1_4_0 :B1_5_0 :B1_6_0 :B1_7_0 :B1_8_0 :B1_9_0 :B1_18_0 :B1_19_0 :B1_12_0 :B1_13_0 :B1_14_0 :B1_15_0'
     shape='296.80,307.20 303.20,307.20 303.64,304.98 304.20,304.20 304.98,303.64 305.98,303.31 307.20,303.20 307.20,296.80 304.98,296.36 304.20,295.80 303.64,295.02 303.31,294.02 303.20,292.80 296.80,292.80 296.36,295.02 295.80,295.80 295.02,296.36 294.02,296.69 292.80,296.80 292.80,303.20 295.02,303.64 295.80,304.20 296.36,304.98 296.69,305.98'>
  <request index='0'
      response='0000000000000000'
      foes='1000010000100000'
      cont='0' />
  <request index='1'
      response='0000000000000000'
      foes='0111110001100000'
      cont='0' />
  <request index='2'
      response='0000001100000000'
      foes='0110011111100000'
      cont='1' />
  <request index='3'
      response='0100001000010000'
      foes='0100001000010000'
      cont='1' />
  <request index='4'
      response='0000001000000000'
      foes='0100001000001000'
      cont='0' />
  <request index='5'
      response='0000011000000111'
      foes='1100011000000111'
      cont='0' />
  <request index='6'
      response='0011011000000110'
      foes='0111111000000110'
      cont='0' />
  <request index='7'
      response='0010000100000100'
      foes='0010000100000100'
      cont='0' />
  <request index='8'
      response='0000000000000000'
      foes='0010000010000100'
      cont='0' />
  <request index='9'
      response='0000000000000000'
      foes='0110000001111100'
      cont='0' />
  <request index='10'
      response='0000000000000111'
      foes='1110000001100111'
      cont='1' />
  <request index='11'
      response='0001000001000010'
      foes='0001000001000010'
      cont='1' />
  <request index='12'
      response='0000000000000010'
      foes='0000100001000010'
      cont='0' />
  <request index='13'
      response='0000011100000110'
      foes='0000011111000110'
      cont='0' />
  <request index='14'
      response='0000011001110110'
      foes='0000011001111110'
      cont='0' />
  <request index='15'
      response='0000010000100001'
      foes='0000010000100001'
      cont='0' />
 </junction>
 <junction id='B2'
     type='priority'
     x='300.00'
     y='600.00'
     incLanes='B1B2_0'
     intLanes=':B2_0_0'
     shape='300.00,600.00 303.20,600.00 300.00,600.00'>
  <request index='0'
      response='0'
      foes='0'
      cont='0' />
 </junction>
 <junction id='C0'
     type='priority'
     x='600.00'
     y='0.00'
     incLanes='C1C0_0'
     intLanes=':C0_0_0'
     shape='600.00,0.00 596.80,0.00 600.00,0.00'>
  <request index='0'
      response='0'
      foes='0'
      cont='0' />
 </junction>
 <junction id='C1'
     type='priority'
     x='600.00'
     y='300.00'
     incLanes='C2C1_0 D1C1_0 C0C1_0 B1C1_0'
     intLanes=':C1_0_0 :C1_1_0 :C1_16_0 :C1_17_0 :C1_4_0 :C1_5_0 :C1_6_0 :C1_7_0 :C1_8_0 :C1_9_0 :C1_18_0 :C1_19_0 :C1_12_0 :C1_13_0 :C1_14_0 :C1_15_0'
     shape='596.80,307.20 603.20,307.20 603.64,304.98 604.20,304.20 604.98,303.64 605.98,303.31 607.20,303.20 607.20,296.80 604.98,296.36 604.20,295.80 603.64,295.02 603.31,294.02 603.20,292.80 596.80,292.80 596.36,295.02 595.80,295.80 595.02,296.36 594.02,296.69 592.80,296.80 592.80,303.20 595.02,303.64 595.80,304.20 596.36,304.98 596.69,305.98'>
  <request index='0'
      response='0000000000000000'
      foes='1000010000100000'
      cont='0' />
  <request index='1'
      response='0000000000000000'
      foes='0111110001100000'
      cont='0' />
  <request index='2'
      response='0000001100000000'
      foes='0110011111100000'
      cont='1' />
  <request index='3'
      response='0100001000010000'
      foes='0100001000010000'
      cont='1' />
  <request index='4'
      response='0000001000000000'
      foes='0100001000001000'
      cont='0' />
  <request index='5'
      response='0000011000000111'
      foes='1100011000000111'
      cont='0' />
  <request index='6'
      response='0011011000000110'
      foes='0111111000000110'
      cont='0' />
  <request index='7'
      response='0010000100000100'
      foes='0010000100000100'
      cont='0' />
  <request index='8'
      response='0000000000000000'
      foes='0010000010000100'
      cont='0' />
  <request index='9'
      response='0000000000000000'
      foes='0110000001111100'
      cont='0' />
  <request index='10'
      response='0000000000000111'
      foes='1110000001100111'
      cont='1' />
  <request index='11'
      response='0001000001000010'
      foes='0001000001000010'
      cont='1' />
  <request index='12'
      response='0000000000000010'
      foes='0000100001000010'
      cont='0' />
  <request index='13'
      response='0000011100000110'
      foes='0000011111000110'
      cont='0' />
  <request index='14'
      response='0000011001110110'
      foes='0000011001111110'
      cont='0' />
  <request index='15'
      response='0000010000100001'
      foes='0000010000100001'
      cont='0' />
 </junction>
 <junction id='C2'
     type='priority'
     x='600.00'
     y='600.00'
     incLanes='C1C2_0'
     intLanes=':C2_0_0'
     shape='600.00,600.00 603.20,600.00 600.00,600.00'>
  <request index='0'
      response='0'
      foes='0'
      cont='0' />
 </junction>
 <junction id='D1'
     type='priority'
     x='900.00'
     y='300.00'
     incLanes='C1D1_0'
     intLanes=':D1_0_0'
     shape='900.00,300.00 900.00,296.80 900.00,300.00'>
  <request index='0'
      response='0'
      foes='0'
      cont='0' />
 </junction>
 <junction id=':B1_16_0'
     type='internal'
     x='299.04'
     y='303.20'
     incLanes=':B1_2_0 B0B1_0'
     intLanes=':B1_5_0 :B1_6_0 :B1_7_0 :B1_8_0 :B1_9_0 :B1_13_0 :B1_14_0' />
 <junction id=':B1_17_0'
     type='internal'
     x='299.20'
     y='306.00'
     incLanes=':B1_3_0 A1B1_0 B0B1_0 C1B1_0'
     intLanes=':B1_4_0 :B1_9_0 :B1_14_0' />
 <junction id=':B1_18_0'
     type='internal'
     x='300.96'
     y='296.80'
     incLanes=':B1_10_0 B2B1_0'
     intLanes=':B1_0_0 :B1_1_0 :B1_5_0 :B1_6_0 :B1_13_0 :B1_14_0 :B1_15_0' />
 <junction id=':B1_19_0'
     type='internal'
     x='300.80'
     y='294.00'
     incLanes=':B1_11_0 A1B1_0 B2B1_0 C1B1_0'
     intLanes=':B1_1_0 :B1_6_0 :B1_12_0' />
 <junction id=':C1_16_0'
     type='internal'
     x='599.04'
     y='303.20'
     incLanes=':C1_2_0 C0C1_0'
     intLanes=':C1_5_0 :C1_6_0 :C1_7_0 :C1_8_0 :C1_9_0 :C1_13_0 :C1_14_0' />
 <junction id=':C1_17_0'
     type='internal'
     x='599.20'
     y='306.00'
     incLanes=':C1_3_0 B1C1_0 C0C1_0 D1C1_0'
     intLanes=':C1_4_0 :C1_9_0 :C1_14_0' />
 <junction id=':C1_18_0'
     type='internal'
     x='600.96'
     y='296.80'
     incLanes=':C1_10_0 C2C1_0'
     intLanes=':C1_0_0 :C1_1_0 :C1_5_0 :C1_6_0 :C1_13_0 :C1_14_0 :C1_15_0' />
 <junction id=':C1_19_0'
     type='internal'
     x='600.80'
     y='294.00'
     incLanes=':C1_11_0 B1C1_0 C2C1_0 D1C1_0'
     intLanes=':C1_1_0 :C1_6_0 :C1_12_0' />
 <connection from='A1B1'
     to='B1B0'
     fromLane='0'
     toLane='0'
     via=':B1_12_0'
     dir='r'
     state='m' />
 <connection from='A1B1'
     to='B1C1'
     fromLane='0'
     toLane='0'
     via=':B1_13_0'
     dir='s'
     state='m' />
 <connection from='A1B1'
     to='B1B2'
     fromLane='0'
     toLane='0'
     via=':B1_14_0'
     dir='l'
     state='m' />
 <connection from='A1B1'
     to='B1A1'
     fromLane='0'
     toLane='0'
     via=':B1_15_0'
     dir='t'
     state='m' />
 <connection from='B0B1'
     to='B1C1'
     fromLane='0'
     toLane='0'
     via=':B1_8_0'
     dir='r'
     state='M' />
 <connection from='B0B1'
     to='B1B2'
     fromLane='0'
     toLane='0'
     via=':B1_9_0'
     dir='s'
     state='M' />
 <connection from='B0B1'
     to='B1A1'
     fromLane='0'
     toLane='0'
     via=':B1_10_0'
     dir='l'
     state='m' />
 <connection from='B0B1'
     to='B1B0'
     fromLane='0'
     toLane='0'
     via=':B1_11_0'
     dir='t'
     state='m' />
 <connection from='B1A1'
     to='A1B1'
     fromLane='0'
     toLane='0'
     via=':A1_0_0'
     dir='t'
     state='M' />
 <connection from='B1B0'
     to='B0B1'
     fromLane='0'
     toLane='0'
     via=':B0_0_0'
     dir='t'
     state='M' />
 <connection from='B1B2'
     to='B2B1'
     fromLane='0'
     toLane='0'
     via=':B2_0_0'
     dir='t'
     state='M' />
 <connection from='B1C1'
     to='C1C0'
     fromLane='0'
     toLane='0'
     via=':C1_12_0'
     dir='r'
     state='m' />
 <connection from='B1C1'
     to='C1D1'
     fromLane='0'
     toLane='0'
     via=':C1_13_0'
     dir='s'
     state='m' />
 <connection from='B1C1'
     to='C1C2'
     fromLane='0'
     toLane='0'
     via=':C1_14_0'
     dir='l'
     state='m' />
 <connection from='B1C1'
     to='C1B1'
     fromLane='0'
     toLane='0'
     via=':C1_15_0'
     dir='t'
     state='m' />
 <connection from='B2B1'
     to='B1A1'
     fromLane='0'
     toLane='0'
     via=':B1_0_0'
     dir='r'
     state='M' />
 <connection from='B2B1'
     to='B1B0'
     fromLane='0'
     toLane='0'
     via=':B1_1_0'
     dir='s'
     state='M' />
 <connection from='B2B1'
     to='B1C1'
     fromLane='0'
     toLane='0'
     via=':B1_2_0'
     dir='l'
     state='m' />
 <connection from='B2B1'
     to='B1B2'
     fromLane='0'
     toLane='0'
     via=':B1_3_0'
     dir='t'
     state='m' />
 <connection from='C0C1'
     to='C1D1'
     fromLane='0'
     toLane='0'
     via=':C1_8_0'
     dir='r'
     state='M' />
 <connection from='C0C1'
     to='C1C2'
     fromLane='0'
     toLane='0'
     via=':C1_9_0'
     dir='s'
     state='M' />
 <connection from='C0C1'
     to='C1B1'
     fromLane='0'
     toLane='0'
     via=':C1_10_0'
     dir='l'
     state='m' />
 <connection from='C0C1'
     to='C1C0'
     fromLane='0'
     toLane='0'
     via=':C1_11_0'
     dir='t'
     state='m' />
 <connection from='C1B1'
     to='B1B2'
     fromLane='0'
     toLane='0'
     via=':B1_4_0'
     dir='r'
     state='m' />
 <connection from='C1B1'
     to='B1A1'
     fromLane='0'
     toLane='0'
     via=':B1_5_0'
     dir='s'
     state='m' />
 <connection from='C1B1'
     to='B1B0'
     fromLane='0'
     toLane='0'
     via=':B1_6_0'
     dir='l'
     state='m' />
 <connection from='C1B1'
     to='B1C1'
     fromLane='0'
     toLane='0'
     via=':B1_7_0'
     dir='t'
     state='m' />
 <connection from='C1C0'
     to='C0C1'
     fromLane='0'
     toLane='0'
     via=':C0_0_0'
     dir='t'
     state='M' />
 <connection from='C1C2'
     to='C2C1'
     fromLane='0'
     toLane='0'
     via=':C2_0_0'
     dir='t'
     state='M' />
 <connection from='C1D1'
     to='D1C1'
     fromLane='0'
     toLane='0'
     via=':D1_0_0'
     dir='t'
     state='M' />
 <connection from='C2C1'
     to='C1B1'
     fromLane='0'
     toLane='0'
     via=':C1_0_0'
     dir='r'
     state='M' />
 <connection from='C2C1'
     to='C1C0'
     fromLane='0'
     toLane='0'
     via=':C1_1_0'
     dir='s'
     state='M' />
 <connection from='C2C1'
     to='C1D1'
     fromLane='0'
     toLane='0'
     via=':C1_2_0'
     dir='l'
     state='m' />
 <connection from='C2C1'
     to='C1C2'
     fromLane='0'
     toLane='0'
     via=':C1_3_0'
     dir='t'
     state='m' />
 <connection from='D1C1'
     to='C1C2'
     fromLane='0'
     toLane='0'
     via=':C1_4_0'
     dir='r'
     state='m' />
 <connection from='D1C1'
     to='C1B1'
     fromLane='0'
     toLane='0'
     via=':C1_5_0'
     dir='s'
     state='m' />
 <connection from='D1C1'
     to='C1C0'
     fromLane='0'
     toLane='0'
     via=':C1_6_0'
     dir='l'
     state='m' />
 <connection from='D1C1'
     to='C1D1'
     fromLane='0'
     toLane='0'
     via=':C1_7_0'
     dir='t'
     state='m' />
 <connection from=':A1_0'
     to='A1B1'
     fromLane='0'
     toLane='0'
     dir='t'
     state='M' />
 <connection from=':B0_0'
     to='B0B1'
     fromLane='0'
     toLane='0'
     dir='t'
     state='M' />
 <connection from=':B1_0'
     to='B1A1'
     fromLane='0'
     toLane='0'
     dir='r'
     state='M' />
 <connection from=':B1_1'
     to='B1B0'
     fromLane='0'
     toLane='0'
     dir='s'
     state='M' />
 <connection from=':B1_2'
     to='B1C1'
     fromLane='0'
     toLane='0'
     via=':B1_16_0'
     dir='l'
     state='m' />
 <connection from=':B1_16'
     to='B1C1'
     fromLane='0'
     toLane='0'
     dir='l'
     state='M' />
 <connection from=':B1_3'
     to='B1B2'
     fromLane='0'
     toLane='0'
     via=':B1_17_0'
     dir='t'
     state='m' />
 <connection from=':B1_17'
     to='B1B2'
     fromLane='0'
     toLane='0'
     dir='t'
     state='M' />
 <connection from=':B1_4'
     to='B1B2'
     fromLane='0'
     toLane='0'
     dir='r'
     state='M' />
 <connection from=':B1_5'
     to='B1A1'
     fromLane='0'
     toLane='0'
     dir='s'
     state='M' />
 <connection from=':B1_6'
     to='B1B0'
     fromLane='0'
     toLane='0'
     dir='l'
     state='M' />
 <connection from=':B1_7'
     to='B1C1'
     fromLane='0'
     toLane='0'
     dir='t'
     state='M' />
 <connection from=':B1_8'
     to='B1C1'
     fromLane='0'
     toLane='0'
     dir='r'
     state='M' />
 <connection from=':B1_9'
     to='B1B2'
     fromLane='0'
     toLane='0'
     dir='s'
     state='M' />
 <connection from=':B1_10'
     to='B1A1'
     fromLane='0'
     toLane='0'
     via=':B1_18_0'
     dir='l'
     state='m' />
 <connection from=':B1_18'
     to='B1A1'
     fromLane='0'
     toLane='0'
     dir='l'
     state='M' />
 <connection from=':B1_11'
     to='B1B0'
     fromLane='0'
     toLane='0'
     via=':B1_19_0'
     dir='t'
     state='m' />
 <connection from=':B1_19'
     to='B1B0'
     fromLane='0'
     toLane='0'
     dir='t'
     state='M' />
 <connection from=':B1_12'
     to='B1B0'
     fromLane='0'
     toLane='0'
     dir='r'
     state='M' />
 <connection from=':B1_13'
     to='B1C1'
     fromLane='0'
     toLane='0'
     dir='s'
     state='M' />
 <connection from=':B1_14'
     to='B1B2'
     fromLane='0'
     toLane='0'
     dir='l'
     state='M' />
 <connection from=':B1_15'
     to='B1A1'
     fromLane='0'
     toLane='0'
     dir='t'
     state='M' />
 <connection from=':B2_0'
     to='B2B1'
     fromLane='0'
     toLane='0'
     dir='t'
     state='M' />
 <connection from=':C0_0'
     to='C0C1'
     fromLane='0'
     toLane='0'
     dir='t'
     state='M' />
 <connection from=':C1_0'
     to='C1B1'
     fromLane='0'
     toLane='0'
     dir='r'
     state='M' />
 <connection from=':C1_1'
     to='C1C0'
     fromLane='0'
     toLane='0'
     dir='s'
     state='M' />
 <connection from=':C1_2'
     to='C1D1'
     fromLane='0'
     toLane='0'
     via=':C1_16_0'
     dir='l'
     state='m' />
 <connection from=':C1_16'
     to='C1D1'
     fromLane='0'
     toLane='0'
     dir='l'
     state='M' />
 <connection from=':C1_3'
     to='C1C2'
     fromLane='0'
     toLane='0'